Version 4
SHEET 1 1188 680
WIRE 288 32 80 32
WIRE 480 32 368 32
WIRE 80 96 80 32
WIRE 480 160 480 32
WIRE 80 176 16 176
WIRE 80 304 80 256
WIRE 288 304 80 304
WIRE 480 304 480 224
WIRE 480 304 368 304
FLAG 16 176 0
FLAG 480 32 V_load+
FLAG 480 304 V_load-
SYMBOL voltage 80 80 R0
WINDOW 123 0 0 Left 0
WINDOW 39 0 0 Left 0
SYMATTR InstName V1
SYMATTR Value 200
SYMBOL voltage 80 272 R180
WINDOW 0 41 162 Left 2
WINDOW 3 24 16 Left 2
WINDOW 123 0 0 Left 0
WINDOW 39 0 0 Left 0
SYMATTR InstName V2
SYMATTR Value -200
SYMBOL res 384 16 R90
WINDOW 0 0 56 VBottom 2
WINDOW 3 32 56 VTop 2
SYMATTR InstName R1
SYMATTR Value 100
SYMBOL res 384 288 R90
WINDOW 0 0 56 VBottom 2
WINDOW 3 32 56 VTop 2
SYMATTR InstName R2
SYMATTR Value 100
SYMBOL cap 464 160 R0
SYMATTR InstName C1
SYMATTR Value 235µ
TEXT 872 -48 Left 2 !.tran 0 0.4 0 10000 startup
